Version 4
SHEET 1 880 680
WIRE 480 -160 480 -192
WIRE 480 -48 480 -80
WIRE 480 -48 432 -48
WIRE 192 -16 192 -80
WIRE 480 -16 480 -48
WIRE 480 96 480 64
WIRE -96 112 -128 112
WIRE -32 112 -96 112
WIRE 64 112 48 112
WIRE 144 128 144 112
WIRE 192 128 192 64
WIRE -96 160 -96 112
WIRE 64 160 64 112
WIRE 80 160 64 160
WIRE 80 224 64 224
WIRE -96 272 -96 240
WIRE -32 272 -96 272
WIRE 64 272 64 224
WIRE 64 272 48 272
WIRE 144 272 144 256
WIRE -96 288 -96 272
WIRE 224 304 224 256
WIRE 384 304 224 304
WIRE 224 336 224 304
WIRE 224 448 224 416
FLAG 432 -48 0
FLAG 480 -192 V+
FLAG 480 96 V-
FLAG -96 288 0
FLAG 144 272 V-
FLAG 144 112 V+
FLAG 192 -80 0
FLAG 224 448 0
FLAG 384 304 out
IOPIN 384 304 Out
FLAG -128 112 in
IOPIN -128 112 In
SYMBOL AutoGenerated\\LM13700_NS 224 192 R0
SYMATTR InstName U1
SYMBOL voltage 480 -176 R0
WINDOW 123 0 0 Left 0
WINDOW 39 0 0 Left 0
SYMATTR InstName V1
SYMATTR Value 12
SYMBOL voltage 480 -32 R0
WINDOW 123 0 0 Left 0
WINDOW 39 0 0 Left 0
SYMATTR InstName V2
SYMATTR Value 12
SYMBOL voltage -96 144 R0
WINDOW 123 0 0 Left 0
WINDOW 39 0 0 Left 0
SYMATTR InstName V3
SYMATTR Value 0
SYMBOL current 192 -16 R0
WINDOW 123 0 0 Left 0
WINDOW 39 0 0 Left 0
SYMATTR InstName I1
SYMATTR Value 0
SYMBOL res 208 320 R0
SYMATTR InstName R1
SYMATTR Value 47k
SYMBOL res 64 96 R90
WINDOW 0 0 56 VBottom 2
WINDOW 3 32 56 VTop 2
SYMATTR InstName R2
SYMATTR Value 1k
SYMBOL res 64 256 R90
WINDOW 0 0 56 VBottom 2
WINDOW 3 32 56 VTop 2
SYMATTR InstName R3
SYMATTR Value 1k
TEXT -6 504 Left 2 !.dc V3 -100u 100u 5u I1 0 1m 100u
