Version 4
SHEET 1 880 792
WIRE 208 -272 -272 -272
WIRE 208 -176 208 -272
WIRE 144 -160 144 -192
WIRE 176 -160 144 -160
WIRE 48 -144 -176 -144
WIRE 144 -144 128 -144
WIRE 160 -144 144 -144
WIRE 320 -144 240 -144
WIRE 160 -128 160 -144
WIRE 176 -128 160 -128
WIRE 320 -80 320 -144
WIRE 560 -80 320 -80
WIRE 208 -48 208 -112
WIRE 208 -48 -336 -48
WIRE 320 -48 320 -80
WIRE 560 -48 560 -80
WIRE 144 -32 144 -144
WIRE 240 -32 240 -48
WIRE 240 -32 144 -32
WIRE -272 0 -272 -272
WIRE 64 0 -272 0
WIRE -16 16 -80 16
WIRE -80 48 -80 16
WIRE 560 64 560 32
WIRE 64 112 64 0
WIRE 112 112 64 112
WIRE 304 112 112 112
WIRE -192 144 -208 144
WIRE -176 144 -176 -144
WIRE -176 144 -192 144
WIRE -80 144 -80 128
WIRE 112 144 112 112
WIRE -272 176 -272 0
WIRE -176 176 -176 144
WIRE -16 176 -16 16
WIRE 64 272 64 112
WIRE 112 272 112 224
WIRE -176 288 -176 256
WIRE -112 288 -128 288
WIRE -16 288 -16 256
WIRE -16 288 -32 288
WIRE -128 304 -128 288
WIRE -16 304 -16 288
WIRE 0 304 -16 304
WIRE -272 336 -272 256
WIRE 0 368 -16 368
WIRE -208 384 -208 144
WIRE -112 384 -208 384
WIRE -16 384 -16 368
WIRE -16 384 -32 384
WIRE -272 416 -272 336
WIRE -16 416 -16 384
WIRE 256 416 256 400
WIRE 368 416 256 416
WIRE 368 432 368 416
WIRE 416 432 368 432
WIRE 560 432 496 432
WIRE 144 448 144 400
WIRE 176 448 176 400
WIRE 176 448 144 448
WIRE 304 448 304 112
WIRE 304 448 240 448
WIRE 240 464 240 448
WIRE 368 464 368 432
WIRE 560 464 560 432
WIRE -16 512 -16 496
WIRE 176 512 176 448
WIRE 192 512 176 512
WIRE 192 544 192 512
WIRE 224 544 192 544
WIRE -336 560 -336 -48
WIRE -272 560 -272 496
WIRE -272 560 -336 560
WIRE -272 576 -272 560
WIRE -48 576 -272 576
WIRE 64 576 64 400
WIRE 64 576 -48 576
WIRE 128 576 96 576
WIRE 224 576 224 544
WIRE 224 576 208 576
WIRE 240 576 240 544
WIRE 240 576 224 576
WIRE 240 592 240 576
WIRE 560 592 560 544
WIRE -208 656 -208 384
WIRE 96 656 96 576
WIRE 96 656 -208 656
WIRE 240 688 240 672
WIRE -48 768 -48 576
WIRE 368 768 368 544
WIRE 368 768 -48 768
FLAG -272 336 0
FLAG -176 288 0
FLAG -128 304 0
FLAG -16 512 0
FLAG 240 688 0
FLAG 560 592 0
FLAG 560 64 0
FLAG -192 144 in
FLAG 560 -80 out-1
FLAG 560 432 out-2
FLAG 144 -192 0
FLAG -80 144 0
SYMBOL AutoGenerated\\LM13700_NS 144 336 R0
SYMATTR InstName U1
SYMBOL AutoGenerated\\TL072 208 -144 R0
SYMATTR InstName U2
SYMBOL voltage -272 160 R0
WINDOW 123 0 0 Left 0
WINDOW 39 0 0 Left 0
SYMATTR InstName V1
SYMATTR Value 12
SYMBOL voltage -272 400 R0
WINDOW 123 0 0 Left 0
WINDOW 39 0 0 Left 0
SYMATTR InstName V2
SYMATTR Value 12
SYMBOL voltage -176 160 R0
WINDOW 123 0 0 Left 0
WINDOW 39 0 0 Left 0
SYMATTR InstName V3
SYMATTR Value PULSE(5 -5 0 0.5m 0.5m 0 1m)
SYMBOL res -32 400 R0
SYMATTR InstName R1
SYMATTR Value 1.5k
SYMBOL res -16 368 R90
WINDOW 0 0 56 VBottom 2
WINDOW 3 32 56 VTop 2
SYMATTR InstName R2
SYMATTR Value 100k
SYMBOL res -16 272 R90
WINDOW 0 0 56 VBottom 2
WINDOW 3 32 56 VTop 2
SYMATTR InstName R3
SYMATTR Value 1.5k
SYMBOL res -32 160 R0
SYMATTR InstName R4
SYMATTR Value 3.3Meg
SYMBOL res 224 576 R0
SYMATTR InstName R5
SYMATTR Value 47k
SYMBOL res 224 560 R90
WINDOW 0 0 56 VBottom 2
WINDOW 3 32 56 VTop 2
SYMATTR InstName R6
SYMATTR Value 33k
SYMBOL res 256 560 R180
WINDOW 0 36 76 Left 2
WINDOW 3 36 40 Left 2
SYMATTR InstName R7
SYMATTR Value 100k
SYMBOL res 96 128 R0
SYMATTR InstName R8
SYMATTR Value 37k
SYMBOL res 352 448 R0
SYMATTR InstName R9
SYMATTR Value 10k
SYMBOL res 512 416 R90
WINDOW 0 0 56 VBottom 2
WINDOW 3 32 56 VTop 2
SYMATTR InstName R10
SYMATTR Value 1k
SYMBOL res 576 560 R180
WINDOW 0 36 76 Left 2
WINDOW 3 36 40 Left 2
SYMATTR InstName R11
SYMATTR Value 10k
SYMBOL res 336 -64 R90
WINDOW 0 0 56 VBottom 2
WINDOW 3 32 56 VTop 2
SYMATTR InstName R12
SYMATTR Value 12k
SYMBOL res 32 -128 R270
WINDOW 0 32 56 VTop 2
WINDOW 3 0 56 VBottom 2
SYMATTR InstName R13
SYMATTR Value 10k
SYMBOL res 544 -64 R0
SYMATTR InstName R14
SYMATTR Value 10k
SYMBOL voltage -80 32 R0
WINDOW 123 0 0 Left 0
WINDOW 39 24 124 Left 2
SYMATTR InstName V4
SYMATTR Value 0
SYMATTR SpiceLine Rser=40k
TEXT -338 774 Left 2 !.tran 5m
