Version 4
SHEET 1 1184 680
WIRE 976 -144 976 -176
WIRE 592 -128 592 -160
WIRE 752 -128 752 -160
WIRE 976 -32 976 -64
WIRE 976 -32 944 -32
WIRE 944 -16 944 -32
WIRE 496 16 432 16
WIRE 560 16 496 16
WIRE 976 16 976 -32
WIRE 704 64 704 32
WIRE 752 64 752 -48
WIRE 432 96 432 16
WIRE 560 96 560 16
WIRE 640 96 560 96
WIRE 592 128 592 -48
WIRE 640 128 592 128
WIRE 976 128 976 96
WIRE 640 160 560 160
WIRE 896 208 896 192
WIRE 960 208 896 208
WIRE 992 208 960 208
WIRE 704 224 704 192
WIRE 784 224 784 192
WIRE 800 224 784 224
WIRE 816 224 816 192
WIRE 816 224 800 224
WIRE 432 240 432 176
WIRE 560 240 560 160
WIRE 560 240 432 240
WIRE 960 240 960 208
WIRE 432 272 432 240
WIRE 800 288 800 224
WIRE 800 320 800 288
WIRE 960 352 960 320
WIRE 800 432 800 400
FLAG 976 -176 V+
FLAG 976 128 V-
FLAG 944 -16 0
FLAG 704 32 V+
FLAG 704 224 V-
FLAG 752 -160 V+
FLAG 432 272 0
FLAG 800 432 0
FLAG 496 16 in
FLAG 992 208 out
IOPIN 992 208 Out
FLAG 960 352 V-
FLAG 800 288 out_ota
FLAG 592 -160 V+
SYMBOL voltage 976 -160 R0
WINDOW 123 0 0 Left 0
WINDOW 39 24 44 Left 2
SYMATTR InstName V1
SYMATTR Value 12
SYMBOL voltage 976 0 R0
WINDOW 123 0 0 Left 0
WINDOW 39 0 0 Left 0
SYMATTR InstName V2
SYMATTR Value 12
SYMBOL AutoGenerated\\LM13700_NS 784 128 R0
SYMATTR InstName U1
SYMBOL voltage 432 80 R0
WINDOW 123 0 0 Left 0
WINDOW 39 24 124 Left 2
SYMATTR SpiceLine Rser=1k
SYMATTR InstName V3
SYMATTR Value 0
SYMBOL current 752 -128 R0
WINDOW 123 0 0 Left 0
WINDOW 39 0 0 Left 0
SYMATTR InstName I1
SYMATTR Value 100µ
SYMBOL res 944 224 R0
SYMATTR InstName R1
SYMATTR Value 1k
SYMBOL res 784 304 R0
SYMATTR InstName R4
SYMATTR Value 15k
SYMBOL res 576 -144 R0
SYMATTR InstName R6
SYMATTR Value {Rdiode}
TEXT 472 368 Left 2 !.dc V3 -100m 100m 0.1m
TEXT 480 -216 Left 2 !.param Rdiode=10k
TEXT 472 392 Left 2 ;.temp 0 10 20 30
