Version 4
SHEET 1 1184 680
WIRE 608 -128 608 -160
WIRE 752 -128 752 -160
WIRE 256 0 224 0
WIRE 304 0 256 0
WIRE 432 0 384 0
WIRE 480 0 432 0
WIRE 560 0 480 0
WIRE 16 16 16 -16
WIRE 432 64 432 0
WIRE 704 64 704 32
WIRE 752 64 752 -48
WIRE 224 96 224 0
WIRE 560 96 560 0
WIRE 640 96 560 96
WIRE 16 128 16 96
WIRE 16 128 -16 128
WIRE 608 128 608 -48
WIRE 640 128 608 128
WIRE -16 144 -16 128
WIRE 640 160 560 160
WIRE 16 176 16 128
WIRE 224 208 224 176
WIRE 432 208 432 144
WIRE 432 208 224 208
WIRE 560 208 560 160
WIRE 560 208 432 208
WIRE 896 208 896 192
WIRE 1056 208 896 208
WIRE 1088 208 1056 208
WIRE 704 224 704 192
WIRE 784 224 784 192
WIRE 816 224 816 192
WIRE 816 224 784 224
WIRE 896 224 816 224
WIRE 224 240 224 208
WIRE 1056 240 1056 208
WIRE 16 288 16 256
WIRE 784 304 784 272
WIRE 1056 352 1056 320
WIRE 784 432 784 384
WIRE 896 432 896 224
WIRE 896 432 784 432
WIRE 784 464 784 432
WIRE 784 576 784 544
FLAG 16 -16 V+
FLAG 16 288 V-
FLAG -16 144 0
FLAG 704 32 V+
FLAG 704 224 V-
FLAG 752 -160 V+
FLAG 224 240 0
FLAG 784 576 0
FLAG 256 0 in
FLAG 480 0 in_att
FLAG 1088 208 out
IOPIN 1088 208 Out
FLAG 1056 352 V-
FLAG 784 272 V+
FLAG 896 432 out_ota
FLAG 608 -160 V+
SYMBOL voltage 16 0 R0
WINDOW 123 0 0 Left 0
WINDOW 39 24 44 Left 2
SYMATTR InstName V1
SYMATTR Value 12
SYMBOL voltage 16 160 R0
WINDOW 123 0 0 Left 0
WINDOW 39 0 0 Left 0
SYMATTR InstName V2
SYMATTR Value 12
SYMBOL AutoGenerated\\LM13700_NS 784 128 R0
SYMATTR InstName U1
SYMBOL voltage 224 80 R0
WINDOW 123 0 0 Left 0
WINDOW 39 0 0 Left 0
SYMATTR InstName V3
SYMATTR Value 0
SYMBOL current 752 -128 R0
WINDOW 123 0 0 Left 0
WINDOW 39 0 0 Left 0
SYMATTR InstName I1
SYMATTR Value 100µ
SYMBOL res 1040 224 R0
SYMATTR InstName R1
SYMATTR Value 10k
SYMBOL res 400 -16 R90
WINDOW 0 0 56 VBottom 2
WINDOW 3 32 56 VTop 2
SYMATTR InstName R2
SYMATTR Value 99k
SYMBOL res 416 48 R0
SYMATTR InstName R3
SYMATTR Value 1k
SYMBOL res 768 448 R0
SYMATTR InstName R4
SYMATTR Value 33k
SYMBOL res 768 288 R0
SYMATTR InstName R5
SYMATTR Value 270k
SYMBOL res 592 -144 R0
SYMATTR InstName R6
SYMATTR Value {Rdiode}
TEXT -36 376 Left 2 !.dc V3 -5 5 0.01
TEXT 544 -264 Left 2 !.step dec param Rdiode 1k 10meg 2
